#calf20_pbesol_REPEAT
_chemical_name_common                    'calf20_pbesol'
_cell_length_a                           17.87500
_cell_length_b                           19.49434
_cell_length_c                           19.02195
_cell_angle_alpha                        90.00001
_cell_angle_beta                         116.38221
_cell_angle_gamma                        89.99999

_symmetry_cell_setting          triclinic
_symmetry_space_group_name_Hall 'P 1'
_symmetry_space_group_name_H-M  'P 1'
_symmetry_Int_Tables_number     1

_symmetry_equiv_pos_as_xyz 'x,y,z'

loop_
   _atom_site_label
   _atom_site_type_symbol
   _atom_site_fract_x
   _atom_site_fract_y
   _atom_site_fract_z
   _atom_site_charge
 _FIT_POINTS1  _FIT_POINTS  NaN  NaN  NaN 0.7063330000000000