#squcalf20_pbe0-d3bj_REPEAT
_chemical_name_common                    'squcalf20_pbe0-d3bj'
_cell_length_a                           21.88429
_cell_length_b                           21.15965
_cell_length_c                           20.83318
_cell_angle_alpha                        89.98820
_cell_angle_beta                         120.66633
_cell_angle_gamma                        90.00765

_symmetry_cell_setting          triclinic
_symmetry_space_group_name_Hall 'P 1'
_symmetry_space_group_name_H-M  'P 1'
_symmetry_Int_Tables_number     1

_symmetry_equiv_pos_as_xyz 'x,y,z'

loop_
   _atom_site_label
   _atom_site_type_symbol
   _atom_site_fract_x
   _atom_site_fract_y
   _atom_site_fract_z
   _atom_site_charge
 _FIT_POINTS1  _FIT_POINTS  NaN  NaN  NaN 0.1783050000000000